%chk=checkgv.chk
# opt=(calcfc,noeigentest,maxcycle=10000) freq=noraman uwb97xd/6-311++g** scf=(novaracc,xqc)

Title Card Required

0 2
H  	 -4.84210000  	  0.79300000  	  0.22740000  	
H  	 -1.20450000  	  3.08460000  	 -0.24430000  	
H  	 -2.52800000  	  5.17620000  	 -0.21430000  	
H  	 -5.00010000  	  5.09390000  	  0.03220000  	
H  	 -6.15370000  	  2.90260000  	  0.25430000  	
H  	 -0.48580000  	 -0.27210000  	 -0.24580000  	
C  	 -4.33110000  	  1.75890000  	  0.12780000  	
C  	 -2.94120000  	  1.80290000  	 -0.01420000  	
C  	 -2.29420000  	  3.03580000  	 -0.13550000  	
C  	 -3.03620000  	  4.21110000  	 -0.11810000  	
C  	 -4.41980000  	  4.16530000  	  0.02030000  	
C  	 -5.06500000  	  2.93970000  	  0.14390000  	
C  	 -2.18830000  	  0.52820000  	 -0.02990000  	
O  	 -2.60920000  	 -0.60500000  	  0.13770000  	
O  	 -0.85470000  	  0.60580000  	 -0.26130000  	



